<?xml version="1.0" encoding="UTF-8"?>

<!-- generated on 2025-03-05 21:35:37 by Eclipse SUMO netedit Version 1.22.0
<neteditConfiguration xmlns:xsi="http://www.w3.org/2001/XMLSchema-instance" xsi:noNamespaceSchemaLocation="http://sumo.dlr.de/xsd/neteditConfiguration.xsd">

    <input>
        <sumo-net-file value="C:\Users\g1635\Desktop\活动\大创\Github\111.net.xml"/>
    </input>

    <output>
        <output-file value="C:\Users\g1635\Desktop\活动\大创\Github\111.net.xml"/>
    </output>

    <processing>
        <geometry.min-radius.fix.railways value="false"/>
        <geometry.max-grade.fix value="false"/>
        <offset.disable-normalization value="true"/>
        <lefthand value="0"/>
    </processing>

    <junctions>
        <no-turnarounds value="true"/>
        <junctions.corner-detail value="5"/>
        <junctions.limit-turn-speed value="5.50"/>
        <rectangular-lane-cut value="0"/>
    </junctions>

    <pedestrian>
        <walkingareas value="0"/>
    </pedestrian>

</neteditConfiguration>
-->

<net version="1.20" junctionCornerDetail="5" limitTurnSpeed="5.50" xmlns:xsi="http://www.w3.org/2001/XMLSchema-instance" xsi:noNamespaceSchemaLocation="http://sumo.dlr.de/xsd/net_file.xsd">

    <location netOffset="0.00,0.00" convBoundary="0.00,100.00,200.00,300.00" origBoundary="0.00,0.00,400.00,400.00" projParameter="!"/>

    <edge id=":A2_0" function="internal">
        <lane id=":A2_0_0" index="0" speed="3.65" length="4.67" shape="0.00,201.60 -1.20,200.80 -1.60,200.00 -1.20,199.20 0.00,198.40"/>
    </edge>
    <edge id=":B1_0" function="internal">
        <lane id=":B1_0_0" index="0" speed="3.65" length="4.67" shape="98.40,100.00 99.20,98.80 100.00,98.40 100.80,98.80 101.60,100.00"/>
    </edge>
    <edge id=":B2_0" function="internal">
        <lane id=":B2_0_0" index="0" speed="6.51" length="9.03" shape="98.40,207.20 98.05,204.75 97.00,203.00 95.25,201.95 92.80,201.60"/>
    </edge>
    <edge id=":B2_1" function="internal">
        <lane id=":B2_1_0" index="0" speed="13.89" length="14.40" shape="98.40,207.20 98.40,192.80"/>
    </edge>
    <edge id=":B2_2" function="internal">
        <lane id=":B2_2_0" index="0" speed="8.00" length="4.07" shape="98.40,207.20 98.95,203.35 99.04,203.20"/>
    </edge>
    <edge id=":B2_3" function="internal">
        <lane id=":B2_3_0" index="0" speed="3.65" length="1.44" shape="98.40,207.20 99.20,206.00"/>
    </edge>
    <edge id=":B2_16" function="internal">
        <lane id=":B2_16_0" index="0" speed="8.00" length="10.13" shape="99.04,203.20 100.60,200.60 103.35,198.95 107.20,198.40"/>
    </edge>
    <edge id=":B2_17" function="internal">
        <lane id=":B2_17_0" index="0" speed="3.65" length="3.23" shape="99.20,206.00 100.00,205.60 100.80,206.00 101.60,207.20"/>
    </edge>
    <edge id=":B2_4" function="internal">
        <lane id=":B2_4_0" index="0" speed="6.51" length="9.03" shape="107.20,201.60 104.75,201.95 103.00,203.00 101.95,204.75 101.60,207.20"/>
    </edge>
    <edge id=":B2_5" function="internal">
        <lane id=":B2_5_0" index="0" speed="13.89" length="14.40" shape="107.20,201.60 92.80,201.60"/>
    </edge>
    <edge id=":B2_6" function="internal">
        <lane id=":B2_6_0" index="0" speed="8.00" length="4.07" shape="107.20,201.60 103.35,201.05 103.20,200.96"/>
    </edge>
    <edge id=":B2_7" function="internal">
        <lane id=":B2_7_0" index="0" speed="3.65" length="1.44" shape="107.20,201.60 106.00,200.80"/>
    </edge>
    <edge id=":B2_18" function="internal">
        <lane id=":B2_18_0" index="0" speed="8.00" length="10.13" shape="103.20,200.96 100.60,199.40 98.95,196.65 98.40,192.80"/>
    </edge>
    <edge id=":B2_19" function="internal">
        <lane id=":B2_19_0" index="0" speed="3.65" length="3.23" shape="106.00,200.80 105.60,200.00 106.00,199.20 107.20,198.40"/>
    </edge>
    <edge id=":B2_8" function="internal">
        <lane id=":B2_8_0" index="0" speed="6.51" length="9.03" shape="101.60,192.80 101.95,195.25 103.00,197.00 104.75,198.05 107.20,198.40"/>
    </edge>
    <edge id=":B2_9" function="internal">
        <lane id=":B2_9_0" index="0" speed="13.89" length="14.40" shape="101.60,192.80 101.60,207.20"/>
    </edge>
    <edge id=":B2_10" function="internal">
        <lane id=":B2_10_0" index="0" speed="8.00" length="4.07" shape="101.60,192.80 101.05,196.65 100.96,196.80"/>
    </edge>
    <edge id=":B2_11" function="internal">
        <lane id=":B2_11_0" index="0" speed="3.65" length="1.44" shape="101.60,192.80 100.80,194.00"/>
    </edge>
    <edge id=":B2_20" function="internal">
        <lane id=":B2_20_0" index="0" speed="8.00" length="10.13" shape="100.96,196.80 99.40,199.40 96.65,201.05 92.80,201.60"/>
    </edge>
    <edge id=":B2_21" function="internal">
        <lane id=":B2_21_0" index="0" speed="3.65" length="3.23" shape="100.80,194.00 100.00,194.40 99.20,194.00 98.40,192.80"/>
    </edge>
    <edge id=":B2_12" function="internal">
        <lane id=":B2_12_0" index="0" speed="6.51" length="9.03" shape="92.80,198.40 95.25,198.05 97.00,197.00 98.05,195.25 98.40,192.80"/>
    </edge>
    <edge id=":B2_13" function="internal">
        <lane id=":B2_13_0" index="0" speed="13.89" length="14.40" shape="92.80,198.40 107.20,198.40"/>
    </edge>
    <edge id=":B2_14" function="internal">
        <lane id=":B2_14_0" index="0" speed="8.00" length="4.07" shape="92.80,198.40 96.65,198.95 96.80,199.04"/>
    </edge>
    <edge id=":B2_15" function="internal">
        <lane id=":B2_15_0" index="0" speed="3.65" length="1.44" shape="92.80,198.40 94.00,199.20"/>
    </edge>
    <edge id=":B2_22" function="internal">
        <lane id=":B2_22_0" index="0" speed="8.00" length="10.13" shape="96.80,199.04 99.40,200.60 101.05,203.35 101.60,207.20"/>
    </edge>
    <edge id=":B2_23" function="internal">
        <lane id=":B2_23_0" index="0" speed="3.65" length="3.23" shape="94.00,199.20 94.40,200.00 94.00,200.80 92.80,201.60"/>
    </edge>
    <edge id=":B3_0" function="internal">
        <lane id=":B3_0_0" index="0" speed="3.65" length="4.67" shape="101.60,300.00 100.80,301.20 100.00,301.60 99.20,301.20 98.40,300.00"/>
    </edge>
    <edge id=":C2_0" function="internal">
        <lane id=":C2_0_0" index="0" speed="3.65" length="4.67" shape="200.00,198.40 201.20,199.20 201.60,200.00 201.20,200.80 200.00,201.60"/>
    </edge>

    <edge id="A2B2" from="A2" to="B2" priority="-1">
        <lane id="A2B2_0" index="0" speed="13.89" length="92.80" shape="0.00,198.40 92.80,198.40"/>
    </edge>
    <edge id="B1B2" from="B1" to="B2" priority="-1">
        <lane id="B1B2_0" index="0" speed="13.89" length="92.80" shape="101.60,100.00 101.60,192.80"/>
    </edge>
    <edge id="B2A2" from="B2" to="A2" priority="-1">
        <lane id="B2A2_0" index="0" speed="13.89" length="92.80" shape="92.80,201.60 0.00,201.60"/>
    </edge>
    <edge id="B2B1" from="B2" to="B1" priority="-1">
        <lane id="B2B1_0" index="0" speed="13.89" length="92.80" shape="98.40,192.80 98.40,100.00"/>
    </edge>
    <edge id="B2B3" from="B2" to="B3" priority="-1">
        <lane id="B2B3_0" index="0" speed="13.89" length="92.80" shape="101.60,207.20 101.60,300.00"/>
    </edge>
    <edge id="B2C2" from="B2" to="C2" priority="-1">
        <lane id="B2C2_0" index="0" speed="13.89" length="92.80" shape="107.20,198.40 200.00,198.40"/>
    </edge>
    <edge id="B3B2" from="B3" to="B2" priority="-1">
        <lane id="B3B2_0" index="0" speed="13.89" length="92.80" shape="98.40,300.00 98.40,207.20"/>
    </edge>
    <edge id="C2B2" from="C2" to="B2" priority="-1">
        <lane id="C2B2_0" index="0" speed="13.89" length="92.80" shape="200.00,201.60 107.20,201.60"/>
    </edge>

    <tlLogic id="B2" type="static" programID="0" offset="0">
        <phase duration="42" state="GGggrrrrGGggrrrr"/>
        <phase duration="3"  state="yyyyrrrryyyyrrrr"/>
        <phase duration="42" state="rrrrGGggrrrrGGgg"/>
        <phase duration="3"  state="rrrryyyyrrrryyyy"/>
    </tlLogic>

    <junction id="A2" type="priority" x="0.00" y="200.00" incLanes="B2A2_0" intLanes=":A2_0_0" shape="0.00,200.00 0.00,203.20 0.00,200.00">
        <request index="0" response="0" foes="0" cont="0"/>
    </junction>
    <junction id="B1" type="priority" x="100.00" y="100.00" incLanes="B2B1_0" intLanes=":B1_0_0" shape="100.00,100.00 96.80,100.00 100.00,100.00">
        <request index="0" response="0" foes="0" cont="0"/>
    </junction>
    <junction id="B2" type="traffic_light" x="100.00" y="200.00" incLanes="B3B2_0 C2B2_0 B1B2_0 A2B2_0" intLanes=":B2_0_0 :B2_1_0 :B2_16_0 :B2_17_0 :B2_4_0 :B2_5_0 :B2_18_0 :B2_19_0 :B2_8_0 :B2_9_0 :B2_20_0 :B2_21_0 :B2_12_0 :B2_13_0 :B2_22_0 :B2_23_0" shape="96.80,207.20 103.20,207.20 103.64,204.98 104.20,204.20 104.98,203.64 105.98,203.31 107.20,203.20 107.20,196.80 104.98,196.36 104.20,195.80 103.64,195.02 103.31,194.02 103.20,192.80 96.80,192.80 96.36,195.02 95.80,195.80 95.02,196.36 94.02,196.69 92.80,196.80 92.80,203.20 95.02,203.64 95.80,204.20 96.36,204.98 96.69,205.98">
        <request index="0"  response="0000000000000000" foes="1000010000100000" cont="0"/>
        <request index="1"  response="0100000001000000" foes="0111110001100000" cont="0"/>
        <request index="2"  response="0100001101000000" foes="0110011111100000" cont="1"/>
        <request index="3"  response="0100001000010000" foes="0100001000010000" cont="1"/>
        <request index="4"  response="0000001000000000" foes="0100001000001000" cont="0"/>
        <request index="5"  response="0000011000000111" foes="1100011000000111" cont="0"/>
        <request index="6"  response="0011011000000110" foes="0111111000000110" cont="1"/>
        <request index="7"  response="0010000100000100" foes="0010000100000100" cont="1"/>
        <request index="8"  response="0000000000000000" foes="0010000010000100" cont="0"/>
        <request index="9"  response="0100000001000000" foes="0110000001111100" cont="0"/>
        <request index="10" response="0100000001000111" foes="1110000001100111" cont="1"/>
        <request index="11" response="0001000001000010" foes="0001000001000010" cont="1"/>
        <request index="12" response="0000000000000010" foes="0000100001000010" cont="0"/>
        <request index="13" response="0000011100000110" foes="0000011111000110" cont="0"/>
        <request index="14" response="0000011001110110" foes="0000011001111110" cont="1"/>
        <request index="15" response="0000010000100001" foes="0000010000100001" cont="1"/>
    </junction>
    <junction id="B3" type="priority" x="100.00" y="300.00" incLanes="B2B3_0" intLanes=":B3_0_0" shape="100.00,300.00 103.20,300.00 100.00,300.00">
        <request index="0" response="0" foes="0" cont="0"/>
    </junction>
    <junction id="C2" type="priority" x="200.00" y="200.00" incLanes="B2C2_0" intLanes=":C2_0_0" shape="200.00,200.00 200.00,196.80 200.00,200.00">
        <request index="0" response="0" foes="0" cont="0"/>
    </junction>

    <junction id=":B2_16_0" type="internal" x="99.04" y="203.20" incLanes=":B2_2_0 B1B2_0" intLanes=":B2_5_0 :B2_6_0 :B2_7_0 :B2_8_0 :B2_9_0 :B2_13_0 :B2_14_0"/>
    <junction id=":B2_17_0" type="internal" x="99.20" y="206.00" incLanes=":B2_3_0 A2B2_0 B1B2_0 C2B2_0" intLanes=":B2_4_0 :B2_9_0 :B2_14_0"/>
    <junction id=":B2_18_0" type="internal" x="103.20" y="200.96" incLanes=":B2_6_0 A2B2_0" intLanes=":B2_1_0 :B2_2_0 :B2_9_0 :B2_10_0 :B2_11_0 :B2_12_0 :B2_13_0"/>
    <junction id=":B2_19_0" type="internal" x="106.00" y="200.80" incLanes=":B2_7_0 A2B2_0 B1B2_0 B3B2_0" intLanes=":B2_2_0 :B2_8_0 :B2_13_0"/>
    <junction id=":B2_20_0" type="internal" x="100.96" y="196.80" incLanes=":B2_10_0 B3B2_0" intLanes=":B2_0_0 :B2_1_0 :B2_5_0 :B2_6_0 :B2_13_0 :B2_14_0 :B2_15_0"/>
    <junction id=":B2_21_0" type="internal" x="100.80" y="194.00" incLanes=":B2_11_0 A2B2_0 B3B2_0 C2B2_0" intLanes=":B2_1_0 :B2_6_0 :B2_12_0"/>
    <junction id=":B2_22_0" type="internal" x="96.80" y="199.04" incLanes=":B2_14_0 C2B2_0" intLanes=":B2_1_0 :B2_2_0 :B2_3_0 :B2_4_0 :B2_5_0 :B2_9_0 :B2_10_0"/>
    <junction id=":B2_23_0" type="internal" x="94.00" y="199.20" incLanes=":B2_15_0 B1B2_0 B3B2_0 C2B2_0" intLanes=":B2_0_0 :B2_5_0 :B2_10_0"/>

    <connection from="A2B2" to="B2B1" fromLane="0" toLane="0" via=":B2_12_0" tl="B2" linkIndex="12" dir="r" state="o"/>
    <connection from="A2B2" to="B2C2" fromLane="0" toLane="0" via=":B2_13_0" tl="B2" linkIndex="13" dir="s" state="o"/>
    <connection from="A2B2" to="B2B3" fromLane="0" toLane="0" via=":B2_14_0" tl="B2" linkIndex="14" dir="l" state="o"/>
    <connection from="A2B2" to="B2A2" fromLane="0" toLane="0" via=":B2_15_0" tl="B2" linkIndex="15" dir="t" state="o"/>
    <connection from="B1B2" to="B2C2" fromLane="0" toLane="0" via=":B2_8_0" tl="B2" linkIndex="8" dir="r" state="O"/>
    <connection from="B1B2" to="B2B3" fromLane="0" toLane="0" via=":B2_9_0" tl="B2" linkIndex="9" dir="s" state="O"/>
    <connection from="B1B2" to="B2A2" fromLane="0" toLane="0" via=":B2_10_0" tl="B2" linkIndex="10" dir="l" state="o"/>
    <connection from="B1B2" to="B2B1" fromLane="0" toLane="0" via=":B2_11_0" tl="B2" linkIndex="11" dir="t" state="o"/>
    <connection from="B2A2" to="A2B2" fromLane="0" toLane="0" via=":A2_0_0" dir="t" state="M"/>
    <connection from="B2B1" to="B1B2" fromLane="0" toLane="0" via=":B1_0_0" dir="t" state="M"/>
    <connection from="B2B3" to="B3B2" fromLane="0" toLane="0" via=":B3_0_0" dir="t" state="M"/>
    <connection from="B2C2" to="C2B2" fromLane="0" toLane="0" via=":C2_0_0" dir="t" state="M"/>
    <connection from="B3B2" to="B2A2" fromLane="0" toLane="0" via=":B2_0_0" tl="B2" linkIndex="0" dir="r" state="O"/>
    <connection from="B3B2" to="B2B1" fromLane="0" toLane="0" via=":B2_1_0" tl="B2" linkIndex="1" dir="s" state="O"/>
    <connection from="B3B2" to="B2C2" fromLane="0" toLane="0" via=":B2_2_0" tl="B2" linkIndex="2" dir="l" state="o"/>
    <connection from="B3B2" to="B2B3" fromLane="0" toLane="0" via=":B2_3_0" tl="B2" linkIndex="3" dir="t" state="o"/>
    <connection from="C2B2" to="B2B3" fromLane="0" toLane="0" via=":B2_4_0" tl="B2" linkIndex="4" dir="r" state="o"/>
    <connection from="C2B2" to="B2A2" fromLane="0" toLane="0" via=":B2_5_0" tl="B2" linkIndex="5" dir="s" state="o"/>
    <connection from="C2B2" to="B2B1" fromLane="0" toLane="0" via=":B2_6_0" tl="B2" linkIndex="6" dir="l" state="o"/>
    <connection from="C2B2" to="B2C2" fromLane="0" toLane="0" via=":B2_7_0" tl="B2" linkIndex="7" dir="t" state="o"/>

    <connection from=":A2_0" to="A2B2" fromLane="0" toLane="0" dir="t" state="M"/>
    <connection from=":B1_0" to="B1B2" fromLane="0" toLane="0" dir="t" state="M"/>
    <connection from=":B2_0" to="B2A2" fromLane="0" toLane="0" dir="r" state="M"/>
    <connection from=":B2_1" to="B2B1" fromLane="0" toLane="0" dir="s" state="M"/>
    <connection from=":B2_2" to="B2C2" fromLane="0" toLane="0" via=":B2_16_0" dir="l" state="m"/>
    <connection from=":B2_16" to="B2C2" fromLane="0" toLane="0" dir="l" state="M"/>
    <connection from=":B2_3" to="B2B3" fromLane="0" toLane="0" via=":B2_17_0" dir="t" state="m"/>
    <connection from=":B2_17" to="B2B3" fromLane="0" toLane="0" dir="t" state="M"/>
    <connection from=":B2_4" to="B2B3" fromLane="0" toLane="0" dir="r" state="M"/>
    <connection from=":B2_5" to="B2A2" fromLane="0" toLane="0" dir="s" state="M"/>
    <connection from=":B2_6" to="B2B1" fromLane="0" toLane="0" via=":B2_18_0" dir="l" state="m"/>
    <connection from=":B2_18" to="B2B1" fromLane="0" toLane="0" dir="l" state="M"/>
    <connection from=":B2_7" to="B2C2" fromLane="0" toLane="0" via=":B2_19_0" dir="t" state="m"/>
    <connection from=":B2_19" to="B2C2" fromLane="0" toLane="0" dir="t" state="M"/>
    <connection from=":B2_8" to="B2C2" fromLane="0" toLane="0" dir="r" state="M"/>
    <connection from=":B2_9" to="B2B3" fromLane="0" toLane="0" dir="s" state="M"/>
    <connection from=":B2_10" to="B2A2" fromLane="0" toLane="0" via=":B2_20_0" dir="l" state="m"/>
    <connection from=":B2_20" to="B2A2" fromLane="0" toLane="0" dir="l" state="M"/>
    <connection from=":B2_11" to="B2B1" fromLane="0" toLane="0" via=":B2_21_0" dir="t" state="m"/>
    <connection from=":B2_21" to="B2B1" fromLane="0" toLane="0" dir="t" state="M"/>
    <connection from=":B2_12" to="B2B1" fromLane="0" toLane="0" dir="r" state="M"/>
    <connection from=":B2_13" to="B2C2" fromLane="0" toLane="0" dir="s" state="M"/>
    <connection from=":B2_14" to="B2B3" fromLane="0" toLane="0" via=":B2_22_0" dir="l" state="m"/>
    <connection from=":B2_22" to="B2B3" fromLane="0" toLane="0" dir="l" state="M"/>
    <connection from=":B2_15" to="B2A2" fromLane="0" toLane="0" via=":B2_23_0" dir="t" state="m"/>
    <connection from=":B2_23" to="B2A2" fromLane="0" toLane="0" dir="t" state="M"/>
    <connection from=":B3_0" to="B3B2" fromLane="0" toLane="0" dir="t" state="M"/>
    <connection from=":C2_0" to="C2B2" fromLane="0" toLane="0" dir="t" state="M"/>

</net>
